.include "/Users/wangtianduo/Desktop/Term4/Computer_Science/50.002_Computational_Structure/courseware/nominal.jsim"
.include "/Users/wangtianduo/Desktop/Term4/Computer_Science/50.002_Computational_Structure/courseware/stdcell.jsim"
.include "/Users/wangtianduo/Desktop/Term4/Computer_Science/50.002_Computational_Structure/courseware/lab6checkoff.jsim"
.include "mux5.jsim"
.include "pc.jsim"

.subckt beta clk reset irq ia[31:0] id[31:0] ma[31:0]
+ moe mrd[31:0] wr mwd[31:0]



.ends
