.include "/Users/wangtianduo/Desktop/Term4/50.002_Computational_Structure/courseware/8clocks.jsim"
.include "/Users/wangtianduo/Desktop/Term4/50.002_Computational_Structure/courseware/nominal.jsim"

***********************
.subckt nand2 a b z

MPD1 z a 1 0 NENH sw=8 sl=1
MPD2 1 b 0 0 NENH sw=8 sl=1
MPU1 z a vdd vdd PENH sw=10 sl=1
MPU2 z b vdd vdd PENH sw=10 sl=1

.ends
***********************
.subckt nor2 a b z

MPD1 z a 0 0 NENH sw=8 sl=1
MPD2 z b 0 0 NENH sw=8 sl=1
MPU1 z a 1 vdd PENH sw=8 sl=1
MPU2 1 b vdd vdd PENH sw=8 sl=1

.ends
***********************
.subckt inv a z

MPD1 z a 0 0 NENH sw=8 sl=1
MPU1 z a vdd vdd PENH sw=8 sl=1

.ends
***********************
.subckt xor2 a b z

MPD1 z a 1 0 NENH sw=2 sl=1
MPD2 1 b 0 0 NENH sw=2 sl=1
MPD3 z 2 0 0 NENH sw=2 sl=1

MPU1 z 2 3 vdd PENH sw=4 sl=1
MPU2 3 a vdd vdd PENH sw=4 sl=1
MPU3 3 b vdd vdd PENH sw=4 sl=1

Xnor a b 2 nor2 

.ends
***********************
.subckt xnor2 a b z

MPD1 z p 1 0 NENH sw=2 sl=1
MPD2 1 b 0 0 NENH sw=2 sl=1
MPD3 1 a 0 0 NENH sw=2 sl=1

MPU1 z p vdd vdd PENH sw=4 sl=1
MPU2 z a 2 vdd PENH sw=4 sl=1
MPU3 2 b vdd vdd PENH sw=4 sl=1

Xnand a b p nand2

.ends
***********************

Xtest clk1 clk2 z xnor2
.tran 20ns
.plot clk1
.plot clk2
.plot z